*Heading
** Job name: Job-2 Model name: FuzhouHouyuRoad
** Generated by: Abaqus/CAE 6.14-1
*Preprint, echo=NO, model=NO, history=NO, contact=NO
**
** PARTS
**
*Part, name=BridgeDeck
*End Part
**  
**
** ASSEMBLY
**
*Assembly, name=Assembly
**  
*Instance, name=Plate-1, part=BridgeDeck
*Node
      1,          11.,         15.5,           0.
      2,          11.,           0.,           0.
      3,          22.,           0.,           0.
      4,          22.,          18.,           0.
      5,           0.,          13.,           0.
      6,           0.,           0.,           0.
      7,          11.,   15.2960529,           0.
      8,          11.,   15.0921049,           0.
      9,          11.,   14.8881578,           0.
     10,          11.,   14.6842108,           0.
     11,          11.,   14.4802628,           0.
     12,          11.,   14.2763157,           0.
     13,          11.,   14.0723686,           0.
     14,          11.,   13.8684206,           0.
     15,          11.,   13.6644735,           0.
     16,          11.,   13.4605265,           0.
     17,          11.,   13.2565794,           0.
     18,          11.,   13.0526314,           0.
     19,          11.,   12.8486843,           0.
     20,          11.,   12.6447372,           0.
** ... 8604 like lines cut
*Element, type=S4R
   1,    1,    7,  450,  266
   2,    7,    8,  451,  450
   3,    8,    9,  452,  451
   4,    9,   10,  453,  452
   5,   10,   11,  454,  453
   6,   11,   12,  455,  454
   7,   12,   13,  456,  455
   8,   13,   14,  457,  456
   9,   14,   15,  458,  457
  10,   15,   16,  459,  458
  11,   16,   17,  460,  459
  12,   17,   18,  461,  460
  13,   18,   19,  462,  461
  14,   19,   20,  463,  462
  15,   20,   21,  464,  463
  16,   21,   22,  465,  464
  17,   22,   23,  466,  465
  18,   23,   24,  467,  466
  19,   24,   25,  468,  467
  20,   25,   26,  469,  468
** ... 8416 like lines cut
*Nset, nset=_PickedSet2, internal, generate
    1,  8624,     1
*Elset, elset=_PickedSet2, internal, generate
    1,  8436,     1
** Section: DeckSection
*Shell General Section, elset=_PickedSet2, material=C40
0.5, 
*End Instance
**  
*Node
      1,          0.5,           3.,           0.
*Node
      2,           1.,           3.,           0.
*Node
      3,          1.5,           3.,           0.
*Node
      4,           2.,           3.,           0.
*Node
      5,          2.5,           3.,           0.
*Node
      6,           3.,           3.,           0.
*Node
      7,          3.5,           3.,           0.
*Node
      8,           4.,           3.,           0.
*Node
      9,          4.5,           3.,           0.
*Node
     10,           5.,           3.,           0.
*Node
     11,          5.5,           3.,           0.
*Node
     12,           6.,           3.,           0.
*Node
     13,          6.5,           3.,           0.
*Node
     14,           7.,           3.,           0.
*Node
     15,          7.5,           3.,           0.
*Node
     16,           8.,           3.,           0.
*Node
     17,          8.5,           3.,           0.
*Node
     18,           9.,           3.,           0.
*Node
     19,          9.5,           3.,           0.
*Node
     20,          10.,           3.,           0.
*Node
     21,         10.5,           3.,           0.
*Node
     22,          11.,           3.,           0.
*Node
     23,         11.5,           3.,           0.
*Node
     24,          12.,           3.,           0.
*Node
     25,         12.5,           3.,           0.
*Node
     26,          13.,           3.,           0.
*Node
     27,         13.5,           3.,           0.
*Node
     28,          14.,           3.,           0.
*Node
     29,         14.5,           3.,           0.
*Node
     30,          15.,           3.,           0.
*Node
     31,         15.5,           3.,           0.
*Node
     32,          16.,           3.,           0.
*Node
     33,         16.5,           3.,           0.
*Node
     34,          17.,           3.,           0.
*Node
     35,         17.5,           3.,           0.
*Node
     36,          18.,           3.,           0.
*Node
     37,         18.5,           3.,           0.
*Node
     38,          19.,           3.,           0.
*Node
     39,         19.5,           3.,           0.
*Node
     40,          20.,           3.,           0.
*Node
     41,         20.5,           3.,           0.
*Node
     42,          21.,           3.,           0.
*Node
     43,         21.5,           3.,           0.
*Nset, nset=End-1, instance=Plate-1
   5,   6, 321, 322, 323, 324, 325, 326, 327, 328, 329, 330, 331, 332, 333, 334
 335, 336, 337, 338, 339, 340, 341, 342, 343, 344, 345, 346, 347, 348, 349, 350
 351, 352, 353, 354, 355, 356, 357, 358, 359, 360, 361, 362, 363, 364, 365, 366
 367, 368, 369, 370, 371, 372, 373, 374, 375, 376, 377, 378, 379, 380, 381, 382
 383, 384, 385, 386, 387, 388, 389, 390, 391, 392, 393, 394, 395
*Elset, elset=End-1, instance=Plate-1, generate
 8361,  8436,     1
*Nset, nset=End-2, instance=Plate-1
  1,  2,  7,  8,  9, 10, 11, 12, 13, 14, 15, 16, 17, 18, 19, 20
 21, 22, 23, 24, 25, 26, 27, 28, 29, 30, 31, 32, 33, 34, 35, 36
 37, 38, 39, 40, 41, 42, 43, 44, 45, 46, 47, 48, 49, 50, 51, 52
 53, 54, 55, 56, 57, 58, 59, 60, 61, 62, 63, 64, 65, 66, 67, 68
 69, 70, 71, 72, 73, 74, 75, 76, 77, 78, 79, 80, 81
*Elset, elset=End-2, instance=Plate-1
    1,    2,    3,    4,    5,    6,    7,    8,    9,   10,   11,   12,   13,   14,   15,   16
   17,   18,   19,   20,   21,   22,   23,   24,   25,   26,   27,   28,   29,   30,   31,   32
   33,   34,   35,   36,   37,   38,   39,   40,   41,   42,   43,   44,   45,   46,   47,   48
   49,   50,   51,   52,   53,   54,   55,   56,   57,   58,   59,   60,   61,   62,   63,   64
   65,   66,   67,   68,   69,   70,   71,   72,   73,   74,   75,   76, 4257, 4258, 4259, 4260
 4261, 4262, 4263, 4264, 4265, 4266, 4267, 4268, 4269, 4270, 4271, 4272, 4273, 4274, 4275, 4276
 4277, 4278, 4279, 4280, 4281, 4282, 4283, 4284, 4285, 4286, 4287, 4288, 4289, 4290, 4291, 4292
 4293, 4294, 4295, 4296, 4297, 4298, 4299, 4300, 4301, 4302, 4303, 4304, 4305, 4306, 4307, 4308
 4309, 4310, 4311, 4312, 4313, 4314, 4315, 4316, 4317, 4318, 4319, 4320, 4321, 4322, 4323, 4324
 4325, 4326, 4327, 4328, 4329, 4330, 4331, 4332
*Nset, nset=End-3, instance=Plate-1
   3,   4, 137, 138, 139, 140, 141, 142, 143, 144, 145, 146, 147, 148, 149, 150
 151, 152, 153, 154, 155, 156, 157, 158, 159, 160, 161, 162, 163, 164, 165, 166
 167, 168, 169, 170, 171, 172, 173, 174, 175, 176, 177, 178, 179, 180, 181, 182
 183, 184, 185, 186, 187, 188, 189, 190, 191, 192, 193, 194, 195, 196, 197, 198
 199, 200, 201, 202, 203, 204, 205, 206, 207, 208, 209, 210, 211
*Elset, elset=End-3, instance=Plate-1, generate
 4181,  4256,     1
*Nset, nset=m_Set-30
 43,
*Nset, nset=_PickedSet10, internal
 1,
*Nset, nset=_PickedSet15, internal
 2,
*Nset, nset=_PickedSet20, internal
 3,
*Nset, nset=_PickedSet25, internal
 4,
*Nset, nset=_PickedSet30, internal
 5,
*Nset, nset=_PickedSet35, internal
 6,
*Nset, nset=_PickedSet40, internal
 7,
*Nset, nset=_PickedSet45, internal
 8,
*Nset, nset=_PickedSet50, internal
 9,
*Nset, nset=_PickedSet55, internal
 10,
*Nset, nset=_PickedSet60, internal
 11,
*Nset, nset=_PickedSet65, internal
 12,
*Nset, nset=_PickedSet70, internal
 13,
*Nset, nset=_PickedSet75, internal
 14,
*Nset, nset=_PickedSet80, internal
 15,
*Nset, nset=_PickedSet85, internal
 16,
*Nset, nset=_PickedSet90, internal
 17,
*Nset, nset=_PickedSet95, internal
 18,
*Nset, nset=_PickedSet100, internal
 19,
*Nset, nset=_PickedSet105, internal
** ... 47 like lines cut
*Elset, elset=_s_Surf-30_SPOS, internal, instance=Plate-1, generate
    1,  4256,     1
*Surface, type=ELEMENT, name=s_Surf-30
_s_Surf-30_SPOS, SPOS
** Constraint: Constraint-RP1
*Coupling, constraint name=Constraint-RP1, ref node=m_Set-30, surface=s_Surf-30, influence radius=0.1
*Distributing, weighting method=UNIFORM
*End Assembly
** 
** MATERIALS
** 
*Material, name=C30
*Elastic
 3e+10, 0.2
*Material, name=C40
*Elastic
 3.25e+10, 0.2
** ----------------------------------------------------------------
** 
** STEP: ApplyLoad
** 
*Step, name=ApplyLoad, nlgeom=NO
*Static
1., 1., 1e-05, 1.
** 
** BOUNDARY CONDITIONS
** 
** Name: BC-1 Type: Displacement/Rotation
*Boundary
End-1, 1, 1
End-1, 2, 2
End-1, 3, 3
End-1, 4, 4
End-1, 6, 6
** Name: BC-2 Type: Displacement/Rotation
*Boundary
End-2, 1, 1
End-2, 2, 2
End-2, 3, 3
End-2, 4, 4
End-2, 6, 6
** Name: BC-3 Type: Displacement/Rotation
*Boundary
End-3, 1, 1
End-3, 2, 2
End-3, 3, 3
End-3, 4, 4
End-3, 6, 6
** 
** LOADS
** 
** Name: Load-1   Type: Concentrated force
*Cload
_PickedSet220, 3, -1.
** 
** OUTPUT REQUESTS
** 
*Restart, write, frequency=0
** 
** FIELD OUTPUT: F-Output-1
** 
*Output, field
*Node Output
CF, RF, U
*Element Output, directions=YES
LE, PE, PEEQ, PEMAG, S, SF
*Contact Output
CDISP, CSTRESS
** 
** HISTORY OUTPUT: H-Output-1
** 
*Output, history, variable=PRESELECT
*End Step
